LAMMPS (2 Aug 2023 - Update 3)
# Simple NVE simulation for geometry optimization at 0K

# 1. Initialize
units           lj        # Use LJ (Lennard-Jones) units
dimension       3         # 3D simulation
boundary        p p p     # Periodic boundaries in all directions

# 2. Atom definition
atom_style      atomic    # Style for atomic simulation
read_data       data_13atoms_iteration3.data # Specify the path to your data file
Reading data file ...
  orthogonal box = (0 0 0) to (10 10 10)
  reading atoms ...
  13 atoms

# 3. Potential
pair_style      lj/cut 20 # Lennard-Jones potential with a cutoff of 2.5
pair_coeff      * * 1.0 1.0 # LJ parameters (epsilon = 1.0, sigma = 1.0)

# 4. Simulation settings
timestep        0.005     # Timestep size
thermo_style    custom step pe lx ly lz press pxx pyy pzz # Output thermodynamic properties
thermo          1000      # Output thermodynamic properties every 1000 steps
dump            1 all custom 1000 dump.traj id type x y z vx vy vz # Dump trajectory in .traj format

# 5. Minimization settings (geometry optimization)
min_style       cg        # Conjugate gradient minimization
minimize        1e-10 1e-10 1000 10000 # Tolerance and maximum iterations
Generated 0 of 0 mixed pair_coeff terms from geometric mixing rule
Step         PotEng           Lx             Ly             Lz           Press           Pxx            Pyy            Pzz
0  -0.04708864     10             10             10            -0.0011797465  -0.00051098606 -0.0012536831  -0.0017745704
Loop time of 0.0949914 on 1 procs for 704 steps with 13 atoms

Minimization stats:
  Stopping criterion = energy tolerance
  Energy initial, next-to-last, final =
  Force two-norm initial, final = 1.3800568 0.003552858
  Force max component initial, final = 0.70707567 0.0017434717
  Final line search alpha, max atom move = 1 0.0017434717
  Iterations, force evaluations = 704 1955

# 6. Run simulation
run             10000     # Run simulation for 10000 steps (adjust as needed)
Generated 0 of 0 mixed pair_coeff terms from geometric mixing rule
Step         PotEng           Lx             Ly             Lz           Press           Pxx            Pyy            Pzz
704  -2.8001698      10             10             10            -5.2816321e-06 -6.0641424e-06 -6.184841e-06  -3.5959129e-06
Averages over the last 6 of 12 rows, steps 6000 to 10704:
PotEng Lx Ly Lz Press Pxx Pyy Pzz
-2.80017 10 10 10 -5.28163e-06 -6.06414e-06 -6.18484e-06 -3.59591e-06
Loop time of 0.18172 on 1 procs for 10000 steps with 13 atoms
