LAMMPS (2 Aug 2023 - Update 3)
Loaded 1 plugins from C:\Users\user\AppData\Local\LAMMPS 64-bit 2Aug2023\plugins
clear
Loaded 1 plugins from C:\Users\user\AppData\Local\LAMMPS 64-bit 2Aug2023\plugins
units real
dimension 3
boundary p p p
atom_style charge
read_data C:/Users/user/Documents/School/FFparamOpt/reax_ff_sim/ceo2_reaxff/geometry_file/fluorite_scaled/ceO2_fluorite_0.950.lmp
Reading data file ...
  orthogonal box = (0 0 0) to (5.1940775 5.1940775 5.1940775)
  reading atoms ...
  12 atoms
pair_style reaxff NULL checkqeq yes
pair_coeff * * C:/Users/user/Documents/School/FFparamOpt/reax_ff_sim/ffield.reax O Ce
neighbor 2 bin
neigh_modify every 10 delay 0 check yes
fix 1 all nve
fix 2 all qeq/reax 1 0.0 10.0 1e-6 reaxff
timestep 0.25
thermo 100
run 1000

CITE-CITE-CITE-CITE-CITE-CITE-CITE-CITE-CITE-CITE-CITE-CITE-CITE

Your simulation uses code contributions which should be cited:

- pair reaxff command: doi:10.1016/j.parco.2011.08.005

@Article{Aktulga12,
 author = {H. M. Aktulga and J. C. Fogarty and S. A. Pandit and A. Y. Grama},
 title = {Parallel Reactive Molecular Dynamics: {N}umerical Methods and Algorithmic Techniques},
 journal = {Parallel Computing},
 year =    2012,
 volume =  38,
 number =  {4--5},
 pages =   {245--259}
}

- fix qeq/reaxff command: doi:10.1016/j.parco.2011.08.005

@Article{Aktulga12,
 author = {H. M. Aktulga and J. C. Fogarty and S. A. Pandit and A. Y. Grama},
 title = {Parallel Reactive Molecular Dynamics: {N}umerical Methods and Algorithmic Techniques},
 journal = {Parallel Computing},
 year =    2012,
 volume =  38,
 pages =   {245--259}
}

CITE-CITE-CITE-CITE-CITE-CITE-CITE-CITE-CITE-CITE-CITE-CITE-CITE

ERROR on proc 0: Not enough space for bonds! total=69100 allocated=68414
 (src/REAXFF/reaxff_reset_tools.cpp:88)
Last command: run 1000
clear
Loaded 1 plugins from C:\Users\user\AppData\Local\LAMMPS 64-bit 2Aug2023\plugins
units real
dimension 3
boundary p p p
atom_style charge
read_data C:/Users/user/Documents/School/FFparamOpt/reax_ff_sim/ceo2_reaxff/geometry_file/fluorite_scaled/ceO2_fluorite_0.960.lmp
Reading data file ...
  orthogonal box = (0 0 0) to (5.248752 5.248752 5.248752)
  reading atoms ...
  12 atoms
pair_style reaxff NULL checkqeq yes
pair_coeff * * C:/Users/user/Documents/School/FFparamOpt/reax_ff_sim/ffield.reax O Ce
neighbor 2 bin
neigh_modify every 10 delay 0 check yes
fix 1 all nve
fix 2 all qeq/reax 1 0.0 10.0 1e-6 reaxff
timestep 0.25
thermo 100
run 1000
ERROR on proc 0: Not enough space for bonds! total=69100 allocated=68414
 (src/REAXFF/reaxff_reset_tools.cpp:88)
Last command: run 1000
clear
Loaded 1 plugins from C:\Users\user\AppData\Local\LAMMPS 64-bit 2Aug2023\plugins
units real
dimension 3
boundary p p p
atom_style charge
read_data C:/Users/user/Documents/School/FFparamOpt/reax_ff_sim/ceo2_reaxff/geometry_file/fluorite_scaled/ceO2_fluorite_0.970.lmp
Reading data file ...
  orthogonal box = (0 0 0) to (5.3034265 5.3034265 5.3034265)
  reading atoms ...
  12 atoms
pair_style reaxff NULL checkqeq yes
pair_coeff * * C:/Users/user/Documents/School/FFparamOpt/reax_ff_sim/ffield.reax O Ce
neighbor 2 bin
neigh_modify every 10 delay 0 check yes
fix 1 all nve
fix 2 all qeq/reax 1 0.0 10.0 1e-6 reaxff
timestep 0.25
thermo 100
run 1000
ERROR on proc 0: Not enough space for bonds! total=69100 allocated=68414
 (src/REAXFF/reaxff_reset_tools.cpp:88)
Last command: run 1000
clear
Loaded 1 plugins from C:\Users\user\AppData\Local\LAMMPS 64-bit 2Aug2023\plugins
units real
dimension 3
boundary p p p
atom_style charge
read_data C:/Users/user/Documents/School/FFparamOpt/reax_ff_sim/ceo2_reaxff/geometry_file/fluorite_scaled/ceO2_fluorite_0.980.lmp
Reading data file ...
  orthogonal box = (0 0 0) to (5.358101 5.358101 5.358101)
  reading atoms ...
  12 atoms
pair_style reaxff NULL checkqeq yes
pair_coeff * * C:/Users/user/Documents/School/FFparamOpt/reax_ff_sim/ffield.reax O Ce
neighbor 2 bin
neigh_modify every 10 delay 0 check yes
fix 1 all nve
fix 2 all qeq/reax 1 0.0 10.0 1e-6 reaxff
timestep 0.25
thermo 100
run 1000
ERROR on proc 0: Not enough space for bonds! total=69100 allocated=68414
 (src/REAXFF/reaxff_reset_tools.cpp:88)
Last command: run 1000
clear
Loaded 1 plugins from C:\Users\user\AppData\Local\LAMMPS 64-bit 2Aug2023\plugins
units real
dimension 3
boundary p p p
atom_style charge
read_data C:/Users/user/Documents/School/FFparamOpt/reax_ff_sim/ceo2_reaxff/geometry_file/fluorite_scaled/ceO2_fluorite_0.990.lmp
Reading data file ...
  orthogonal box = (0 0 0) to (5.4127755 5.4127755 5.4127755)
  reading atoms ...
  12 atoms
pair_style reaxff NULL checkqeq yes
pair_coeff * * C:/Users/user/Documents/School/FFparamOpt/reax_ff_sim/ffield.reax O Ce
neighbor 2 bin
neigh_modify every 10 delay 0 check yes
fix 1 all nve
fix 2 all qeq/reax 1 0.0 10.0 1e-6 reaxff
timestep 0.25
thermo 100
run 1000
ERROR on proc 0: Not enough space for bonds! total=69100 allocated=68414
 (src/REAXFF/reaxff_reset_tools.cpp:88)
Last command: run 1000
clear
Loaded 1 plugins from C:\Users\user\AppData\Local\LAMMPS 64-bit 2Aug2023\plugins
units real
dimension 3
boundary p p p
atom_style charge
read_data C:/Users/user/Documents/School/FFparamOpt/reax_ff_sim/ceo2_reaxff/geometry_file/fluorite_scaled/ceO2_fluorite_1.000.lmp
Reading data file ...
  orthogonal box = (0 0 0) to (5.46745 5.46745 5.46745)
  reading atoms ...
  12 atoms
pair_style reaxff NULL checkqeq yes
pair_coeff * * C:/Users/user/Documents/School/FFparamOpt/reax_ff_sim/ffield.reax O Ce
neighbor 2 bin
neigh_modify every 10 delay 0 check yes
fix 1 all nve
fix 2 all qeq/reax 1 0.0 10.0 1e-6 reaxff
timestep 0.25
thermo 100
run 1000
Step          Temp          E_pair         E_mol          TotEng         Press
0   0             -1703.3642      0             -1703.3642      921678.65
Averages over the last 6 of 11 rows, steps 500 to 1000:
Temp E_pair E_mol TotEng Press
1.73856e-08 -1703.36 0 -1703.36 921679
Loop time of 7.84913 on 1 procs for 1000 steps with 12 atoms

clear
Loaded 1 plugins from C:\Users\user\AppData\Local\LAMMPS 64-bit 2Aug2023\plugins
units real
dimension 3
boundary p p p
atom_style charge
read_data C:/Users/user/Documents/School/FFparamOpt/reax_ff_sim/ceo2_reaxff/geometry_file/fluorite_scaled/ceO2_fluorite_1.010.lmp
Reading data file ...
  orthogonal box = (0 0 0) to (5.5221245 5.5221245 5.5221245)
  reading atoms ...
  12 atoms
pair_style reaxff NULL checkqeq yes
pair_coeff * * C:/Users/user/Documents/School/FFparamOpt/reax_ff_sim/ffield.reax O Ce
neighbor 2 bin
neigh_modify every 10 delay 0 check yes
fix 1 all nve
fix 2 all qeq/reax 1 0.0 10.0 1e-6 reaxff
timestep 0.25
thermo 100
run 1000
Step          Temp          E_pair         E_mol          TotEng         Press
0   0             -1759.2999      0             -1759.2999      753089.84
Averages over the last 6 of 11 rows, steps 500 to 1000:
Temp E_pair E_mol TotEng Press
1.8342e-08 -1759.3 0 -1759.3 753090
Loop time of 7.4199 on 1 procs for 1000 steps with 12 atoms

clear
Loaded 1 plugins from C:\Users\user\AppData\Local\LAMMPS 64-bit 2Aug2023\plugins
units real
dimension 3
boundary p p p
atom_style charge
read_data C:/Users/user/Documents/School/FFparamOpt/reax_ff_sim/ceo2_reaxff/geometry_file/fluorite_scaled/ceO2_fluorite_1.020.lmp
Reading data file ...
  orthogonal box = (0 0 0) to (5.576799 5.576799 5.576799)
  reading atoms ...
  12 atoms
pair_style reaxff NULL checkqeq yes
pair_coeff * * C:/Users/user/Documents/School/FFparamOpt/reax_ff_sim/ffield.reax O Ce
neighbor 2 bin
neigh_modify every 10 delay 0 check yes
fix 1 all nve
fix 2 all qeq/reax 1 0.0 10.0 1e-6 reaxff
timestep 0.25
thermo 100
run 1000
Step          Temp          E_pair         E_mol          TotEng         Press
0   0             -1805.1277      0             -1805.1277      609032.85
Averages over the last 6 of 11 rows, steps 500 to 1000:
Temp E_pair E_mol TotEng Press
1.94416e-08 -1805.13 0 -1805.13 609033
Loop time of 7.68648 on 1 procs for 1000 steps with 12 atoms

clear
Loaded 1 plugins from C:\Users\user\AppData\Local\LAMMPS 64-bit 2Aug2023\plugins
units real
dimension 3
boundary p p p
atom_style charge
read_data C:/Users/user/Documents/School/FFparamOpt/reax_ff_sim/ceo2_reaxff/geometry_file/fluorite_scaled/ceO2_fluorite_1.030.lmp
Reading data file ...
  orthogonal box = (0 0 0) to (5.6314735 5.6314735 5.6314735)
  reading atoms ...
  12 atoms
pair_style reaxff NULL checkqeq yes
pair_coeff * * C:/Users/user/Documents/School/FFparamOpt/reax_ff_sim/ffield.reax O Ce
neighbor 2 bin
neigh_modify every 10 delay 0 check yes
fix 1 all nve
fix 2 all qeq/reax 1 0.0 10.0 1e-6 reaxff
timestep 0.25
thermo 100
run 1000
Step          Temp          E_pair         E_mol          TotEng         Press
0   0             -1842.2004      0             -1842.2004      484251.65
Averages over the last 6 of 11 rows, steps 500 to 1000:
Temp E_pair E_mol TotEng Press
1.49434e-08 -1842.2 0 -1842.2 484252
Loop time of 7.93827 on 1 procs for 1000 steps with 12 atoms

clear
Loaded 1 plugins from C:\Users\user\AppData\Local\LAMMPS 64-bit 2Aug2023\plugins
units real
dimension 3
boundary p p p
atom_style charge
read_data C:/Users/user/Documents/School/FFparamOpt/reax_ff_sim/ceo2_reaxff/geometry_file/fluorite_scaled/ceO2_fluorite_1.040.lmp
Reading data file ...
  orthogonal box = (0 0 0) to (5.686148 5.686148 5.686148)
  reading atoms ...
  12 atoms
pair_style reaxff NULL checkqeq yes
pair_coeff * * C:/Users/user/Documents/School/FFparamOpt/reax_ff_sim/ffield.reax O Ce
neighbor 2 bin
neigh_modify every 10 delay 0 check yes
fix 1 all nve
fix 2 all qeq/reax 1 0.0 10.0 1e-6 reaxff
timestep 0.25
thermo 100
run 1000
Step          Temp          E_pair         E_mol          TotEng         Press
0   0             -1871.4624      0             -1871.4624      374901.72
Averages over the last 6 of 11 rows, steps 500 to 1000:
Temp E_pair E_mol TotEng Press
1.00272e-08 -1871.46 0 -1871.46 374902
Loop time of 7.3864 on 1 procs for 1000 steps with 12 atoms

clear
Loaded 1 plugins from C:\Users\user\AppData\Local\LAMMPS 64-bit 2Aug2023\plugins
units real
dimension 3
boundary p p p
atom_style charge
read_data C:/Users/user/Documents/School/FFparamOpt/reax_ff_sim/ceo2_reaxff/geometry_file/fluorite_scaled/ceO2_fluorite_1.050.lmp
Reading data file ...
  orthogonal box = (0 0 0) to (5.7408225 5.7408225 5.7408225)
  reading atoms ...
  12 atoms
pair_style reaxff NULL checkqeq yes
pair_coeff * * C:/Users/user/Documents/School/FFparamOpt/reax_ff_sim/ffield.reax O Ce
neighbor 2 bin
neigh_modify every 10 delay 0 check yes
fix 1 all nve
fix 2 all qeq/reax 1 0.0 10.0 1e-6 reaxff
timestep 0.25
thermo 100
run 1000
Step          Temp          E_pair         E_mol          TotEng         Press
0   0             -1893.7425      0             -1893.7425      278123.27
Averages over the last 6 of 11 rows, steps 500 to 1000:
Temp E_pair E_mol TotEng Press
2.78136e-08 -1893.74 0 -1893.74 278123
Loop time of 6.78676 on 1 procs for 1000 steps with 12 atoms

clear
Loaded 1 plugins from C:\Users\user\AppData\Local\LAMMPS 64-bit 2Aug2023\plugins
units real
dimension 3
boundary p p p
atom_style charge
read_data C:/Users/user/Documents/School/FFparamOpt/reax_ff_sim/ceo2_reaxff/geometry_file/fluorite_scaled/ceO2_fluorite_1.060.lmp
Reading data file ...
  orthogonal box = (0 0 0) to (5.795497 5.795497 5.795497)
  reading atoms ...
  12 atoms
pair_style reaxff NULL checkqeq yes
pair_coeff * * C:/Users/user/Documents/School/FFparamOpt/reax_ff_sim/ffield.reax O Ce
neighbor 2 bin
neigh_modify every 10 delay 0 check yes
fix 1 all nve
fix 2 all qeq/reax 1 0.0 10.0 1e-6 reaxff
timestep 0.25
thermo 100
run 1000
Step          Temp          E_pair         E_mol          TotEng         Press
0   0             -1909.3189      0             -1909.3189      193897.83
Averages over the last 6 of 11 rows, steps 500 to 1000:
Temp E_pair E_mol TotEng Press
3.72666e-08 -1909.32 0 -1909.32 193898
Loop time of 5.66815 on 1 procs for 1000 steps with 12 atoms

clear
Loaded 1 plugins from C:\Users\user\AppData\Local\LAMMPS 64-bit 2Aug2023\plugins
units real
dimension 3
boundary p p p
atom_style charge
read_data C:/Users/user/Documents/School/FFparamOpt/reax_ff_sim/ceo2_reaxff/geometry_file/fluorite_scaled/ceO2_fluorite_1.070.lmp
Reading data file ...
  orthogonal box = (0 0 0) to (5.8501715 5.8501715 5.8501715)
  reading atoms ...
  12 atoms
pair_style reaxff NULL checkqeq yes
pair_coeff * * C:/Users/user/Documents/School/FFparamOpt/reax_ff_sim/ffield.reax O Ce
neighbor 2 bin
neigh_modify every 10 delay 0 check yes
fix 1 all nve
fix 2 all qeq/reax 1 0.0 10.0 1e-6 reaxff
timestep 0.25
thermo 100
run 1000
Step          Temp          E_pair         E_mol          TotEng         Press
0   0             -1920.116       0             -1920.116       148869.4
Averages over the last 6 of 11 rows, steps 500 to 1000:
Temp E_pair E_mol TotEng Press
3.66954e-08 -1920.12 0 -1920.12 148869
Loop time of 5.61038 on 1 procs for 1000 steps with 12 atoms

clear
Loaded 1 plugins from C:\Users\user\AppData\Local\LAMMPS 64-bit 2Aug2023\plugins
units real
dimension 3
boundary p p p
atom_style charge
read_data C:/Users/user/Documents/School/FFparamOpt/reax_ff_sim/ceo2_reaxff/geometry_file/fluorite_scaled/ceO2_fluorite_1.080.lmp
Reading data file ...
  orthogonal box = (0 0 0) to (5.904846 5.904846 5.904846)
  reading atoms ...
  12 atoms
pair_style reaxff NULL checkqeq yes
pair_coeff * * C:/Users/user/Documents/School/FFparamOpt/reax_ff_sim/ffield.reax O Ce
neighbor 2 bin
neigh_modify every 10 delay 0 check yes
fix 1 all nve
fix 2 all qeq/reax 1 0.0 10.0 1e-6 reaxff
timestep 0.25
thermo 100
run 1000
Step          Temp          E_pair         E_mol          TotEng         Press
0   0             -1921.3296      0             -1921.3296     -220972.48
Averages over the last 6 of 11 rows, steps 500 to 1000:
Temp E_pair E_mol TotEng Press
3.18908e-08 -1921.33 0 -1921.33 -220972
Loop time of 5.60148 on 1 procs for 1000 steps with 12 atoms

clear
Loaded 1 plugins from C:\Users\user\AppData\Local\LAMMPS 64-bit 2Aug2023\plugins
units real
dimension 3
boundary p p p
atom_style charge
read_data C:/Users/user/Documents/School/FFparamOpt/reax_ff_sim/ceo2_reaxff/geometry_file/fluorite_scaled/ceO2_fluorite_1.090.lmp
Reading data file ...
  orthogonal box = (0 0 0) to (5.9595205 5.9595205 5.9595205)
  reading atoms ...
  12 atoms
pair_style reaxff NULL checkqeq yes
pair_coeff * * C:/Users/user/Documents/School/FFparamOpt/reax_ff_sim/ffield.reax O Ce
neighbor 2 bin
neigh_modify every 10 delay 0 check yes
fix 1 all nve
fix 2 all qeq/reax 1 0.0 10.0 1e-6 reaxff
timestep 0.25
thermo 100
run 1000
Step          Temp          E_pair         E_mol          TotEng         Press
0   0             -1895.7136      0             -1895.7136     -293618.29
Averages over the last 6 of 11 rows, steps 500 to 1000:
Temp E_pair E_mol TotEng Press
2.27697e-08 -1895.71 0 -1895.71 -293618
Loop time of 5.62274 on 1 procs for 1000 steps with 12 atoms

clear
Loaded 1 plugins from C:\Users\user\AppData\Local\LAMMPS 64-bit 2Aug2023\plugins
units real
dimension 3
boundary p p p
atom_style charge
read_data C:/Users/user/Documents/School/FFparamOpt/reax_ff_sim/ceo2_reaxff/geometry_file/fluorite_scaled/ceO2_fluorite_1.100.lmp
Reading data file ...
  orthogonal box = (0 0 0) to (6.014195 6.014195 6.014195)
  reading atoms ...
  12 atoms
pair_style reaxff NULL checkqeq yes
pair_coeff * * C:/Users/user/Documents/School/FFparamOpt/reax_ff_sim/ffield.reax O Ce
neighbor 2 bin
neigh_modify every 10 delay 0 check yes
fix 1 all nve
fix 2 all qeq/reax 1 0.0 10.0 1e-6 reaxff
timestep 0.25
thermo 100
run 1000
Step          Temp          E_pair         E_mol          TotEng         Press
0   0             -1868.2561      0             -1868.2561     -313155.46
Averages over the last 6 of 11 rows, steps 500 to 1000:
Temp E_pair E_mol TotEng Press
2.71134e-08 -1868.26 0 -1868.26 -313155
Loop time of 5.70674 on 1 procs for 1000 steps with 12 atoms

clear
Loaded 1 plugins from C:\Users\user\AppData\Local\LAMMPS 64-bit 2Aug2023\plugins
units real
dimension 3
boundary p p p
atom_style charge
read_data C:/Users/user/Documents/School/FFparamOpt/reax_ff_sim/ceo2_reaxff/geometry_file/fluorite_scaled/ceO2_fluorite_1.110.lmp
Reading data file ...
  orthogonal box = (0 0 0) to (6.0688695 6.0688695 6.0688695)
  reading atoms ...
  12 atoms
pair_style reaxff NULL checkqeq yes
pair_coeff * * C:/Users/user/Documents/School/FFparamOpt/reax_ff_sim/ffield.reax O Ce
neighbor 2 bin
neigh_modify every 10 delay 0 check yes
fix 1 all nve
fix 2 all qeq/reax 1 0.0 10.0 1e-6 reaxff
timestep 0.25
thermo 100
run 1000
Step          Temp          E_pair         E_mol          TotEng         Press
0   0             -1838.9601      0             -1838.9601     -325221.7
Averages over the last 6 of 11 rows, steps 500 to 1000:
Temp E_pair E_mol TotEng Press
2.56846e-08 -1838.96 0 -1838.96 -325222
Loop time of 4.93971 on 1 procs for 1000 steps with 12 atoms

clear
Loaded 1 plugins from C:\Users\user\AppData\Local\LAMMPS 64-bit 2Aug2023\plugins
units real
dimension 3
boundary p p p
atom_style charge
read_data C:/Users/user/Documents/School/FFparamOpt/reax_ff_sim/ceo2_reaxff/geometry_file/fluorite_scaled/ceO2_fluorite_1.120.lmp
Reading data file ...
  orthogonal box = (0 0 0) to (6.123544 6.123544 6.123544)
  reading atoms ...
  12 atoms
pair_style reaxff NULL checkqeq yes
pair_coeff * * C:/Users/user/Documents/School/FFparamOpt/reax_ff_sim/ffield.reax O Ce
neighbor 2 bin
neigh_modify every 10 delay 0 check yes
fix 1 all nve
fix 2 all qeq/reax 1 0.0 10.0 1e-6 reaxff
timestep 0.25
thermo 100
run 1000
Step          Temp          E_pair         E_mol          TotEng         Press
0   0             -1808.7986      0             -1808.7986     -328386.06
Averages over the last 6 of 11 rows, steps 500 to 1000:
Temp E_pair E_mol TotEng Press
2.18123e-08 -1808.8 0 -1808.8 -328386
Loop time of 4.93244 on 1 procs for 1000 steps with 12 atoms

clear
Loaded 1 plugins from C:\Users\user\AppData\Local\LAMMPS 64-bit 2Aug2023\plugins
units real
dimension 3
boundary p p p
atom_style charge
read_data C:/Users/user/Documents/School/FFparamOpt/reax_ff_sim/ceo2_reaxff/geometry_file/fluorite_scaled/ceO2_fluorite_1.130.lmp
Reading data file ...
  orthogonal box = (0 0 0) to (6.1782185 6.1782185 6.1782185)
  reading atoms ...
  12 atoms
pair_style reaxff NULL checkqeq yes
pair_coeff * * C:/Users/user/Documents/School/FFparamOpt/reax_ff_sim/ffield.reax O Ce
neighbor 2 bin
neigh_modify every 10 delay 0 check yes
fix 1 all nve
fix 2 all qeq/reax 1 0.0 10.0 1e-6 reaxff
timestep 0.25
thermo 100
run 1000
Step          Temp          E_pair         E_mol          TotEng         Press
0   0             -1778.4646      0             -1778.4646     -323829.93
Averages over the last 6 of 11 rows, steps 500 to 1000:
Temp E_pair E_mol TotEng Press
2.6502e-08 -1778.46 0 -1778.46 -323830
Loop time of 4.68822 on 1 procs for 1000 steps with 12 atoms

clear
Loaded 1 plugins from C:\Users\user\AppData\Local\LAMMPS 64-bit 2Aug2023\plugins
units real
dimension 3
boundary p p p
atom_style charge
read_data C:/Users/user/Documents/School/FFparamOpt/reax_ff_sim/ceo2_reaxff/geometry_file/fluorite_scaled/ceO2_fluorite_1.140.lmp
Reading data file ...
  orthogonal box = (0 0 0) to (6.232893 6.232893 6.232893)
  reading atoms ...
  12 atoms
pair_style reaxff NULL checkqeq yes
pair_coeff * * C:/Users/user/Documents/School/FFparamOpt/reax_ff_sim/ffield.reax O Ce
neighbor 2 bin
neigh_modify every 10 delay 0 check yes
fix 1 all nve
fix 2 all qeq/reax 1 0.0 10.0 1e-6 reaxff
timestep 0.25
thermo 100
run 1000
Step          Temp          E_pair         E_mol          TotEng         Press
0   0             -1748.581       0             -1748.581      -312840.73
Averages over the last 6 of 11 rows, steps 500 to 1000:
Temp E_pair E_mol TotEng Press
5.12154e-09 -1748.58 0 -1748.58 -312840
Loop time of 4.88969 on 1 procs for 1000 steps with 12 atoms

clear
Loaded 1 plugins from C:\Users\user\AppData\Local\LAMMPS 64-bit 2Aug2023\plugins
units real
dimension 3
boundary p p p
atom_style charge
read_data C:/Users/user/Documents/School/FFparamOpt/reax_ff_sim/ceo2_reaxff/geometry_file/fluorite_scaled/ceO2_fluorite_1.150.lmp
Reading data file ...
  orthogonal box = (0 0 0) to (6.2875675 6.2875675 6.2875675)
  reading atoms ...
  12 atoms
pair_style reaxff NULL checkqeq yes
pair_coeff * * C:/Users/user/Documents/School/FFparamOpt/reax_ff_sim/ffield.reax O Ce
neighbor 2 bin
neigh_modify every 10 delay 0 check yes
fix 1 all nve
fix 2 all qeq/reax 1 0.0 10.0 1e-6 reaxff
timestep 0.25
thermo 100
run 1000
Step          Temp          E_pair         E_mol          TotEng         Press
0   0             -1719.6858      0             -1719.6858     -296812.56
Averages over the last 6 of 11 rows, steps 500 to 1000:
Temp E_pair E_mol TotEng Press
7.50765e-08 -1719.69 0 -1719.69 -296813
Loop time of 4.85212 on 1 procs for 1000 steps with 12 atoms

clear
Loaded 1 plugins from C:\Users\user\AppData\Local\LAMMPS 64-bit 2Aug2023\plugins
units real
dimension 3
boundary p p p
atom_style charge
read_data C:/Users/user/Documents/School/FFparamOpt/reax_ff_sim/ceo2_reaxff/geometry_file/fluorite_scaled/ceO2_fluorite_1.160.lmp
Reading data file ...
  orthogonal box = (0 0 0) to (6.342242 6.342242 6.342242)
  reading atoms ...
  12 atoms
pair_style reaxff NULL checkqeq yes
pair_coeff * * C:/Users/user/Documents/School/FFparamOpt/reax_ff_sim/ffield.reax O Ce
neighbor 2 bin
neigh_modify every 10 delay 0 check yes
fix 1 all nve
fix 2 all qeq/reax 1 0.0 10.0 1e-6 reaxff
timestep 0.25
thermo 100
run 1000
ERROR on proc 0: Not enough space for bonds! total=26828 allocated=26740
 (src/REAXFF/reaxff_reset_tools.cpp:88)
Last command: run 1000
clear
Loaded 1 plugins from C:\Users\user\AppData\Local\LAMMPS 64-bit 2Aug2023\plugins
units real
dimension 3
boundary p p p
atom_style charge
read_data C:/Users/user/Documents/School/FFparamOpt/reax_ff_sim/ceo2_reaxff/geometry_file/fluorite_scaled/ceO2_fluorite_1.170.lmp
Reading data file ...
  orthogonal box = (0 0 0) to (6.3969165 6.3969165 6.3969165)
  reading atoms ...
  12 atoms
pair_style reaxff NULL checkqeq yes
pair_coeff * * C:/Users/user/Documents/School/FFparamOpt/reax_ff_sim/ffield.reax O Ce
neighbor 2 bin
neigh_modify every 10 delay 0 check yes
fix 1 all nve
fix 2 all qeq/reax 1 0.0 10.0 1e-6 reaxff
timestep 0.25
thermo 100
run 1000
ERROR on proc 0: Not enough space for bonds! total=26828 allocated=26740
 (src/REAXFF/reaxff_reset_tools.cpp:88)
Last command: run 1000
clear
Loaded 1 plugins from C:\Users\user\AppData\Local\LAMMPS 64-bit 2Aug2023\plugins
units real
dimension 3
boundary p p p
atom_style charge
read_data C:/Users/user/Documents/School/FFparamOpt/reax_ff_sim/ceo2_reaxff/geometry_file/fluorite_scaled/ceO2_fluorite_1.180.lmp
Reading data file ...
  orthogonal box = (0 0 0) to (6.451591 6.451591 6.451591)
  reading atoms ...
  12 atoms
pair_style reaxff NULL checkqeq yes
pair_coeff * * C:/Users/user/Documents/School/FFparamOpt/reax_ff_sim/ffield.reax O Ce
neighbor 2 bin
neigh_modify every 10 delay 0 check yes
fix 1 all nve
fix 2 all qeq/reax 1 0.0 10.0 1e-6 reaxff
timestep 0.25
thermo 100
run 1000
ERROR on proc 0: Not enough space for bonds! total=26828 allocated=26740
 (src/REAXFF/reaxff_reset_tools.cpp:88)
Last command: run 1000
clear
Loaded 1 plugins from C:\Users\user\AppData\Local\LAMMPS 64-bit 2Aug2023\plugins
units real
dimension 3
boundary p p p
atom_style charge
read_data C:/Users/user/Documents/School/FFparamOpt/reax_ff_sim/ceo2_reaxff/geometry_file/fluorite_scaled/ceO2_fluorite_1.190.lmp
Reading data file ...
  orthogonal box = (0 0 0) to (6.5062655 6.5062655 6.5062655)
  reading atoms ...
  12 atoms
pair_style reaxff NULL checkqeq yes
pair_coeff * * C:/Users/user/Documents/School/FFparamOpt/reax_ff_sim/ffield.reax O Ce
neighbor 2 bin
neigh_modify every 10 delay 0 check yes
fix 1 all nve
fix 2 all qeq/reax 1 0.0 10.0 1e-6 reaxff
timestep 0.25
thermo 100
run 1000
ERROR on proc 0: Not enough space for bonds! total=26828 allocated=26740
 (src/REAXFF/reaxff_reset_tools.cpp:88)
Last command: run 1000
clear
Loaded 1 plugins from C:\Users\user\AppData\Local\LAMMPS 64-bit 2Aug2023\plugins
units real
dimension 3
boundary p p p
atom_style charge
read_data C:/Users/user/Documents/School/FFparamOpt/reax_ff_sim/ceo2_reaxff/geometry_file/fluorite_scaled/ceO2_fluorite_1.200.lmp
Reading data file ...
  orthogonal box = (0 0 0) to (6.56094 6.56094 6.56094)
  reading atoms ...
  12 atoms
pair_style reaxff NULL checkqeq yes
pair_coeff * * C:/Users/user/Documents/School/FFparamOpt/reax_ff_sim/ffield.reax O Ce
neighbor 2 bin
neigh_modify every 10 delay 0 check yes
fix 1 all nve
fix 2 all qeq/reax 1 0.0 10.0 1e-6 reaxff
timestep 0.25
thermo 100
run 1000
ERROR on proc 0: Not enough space for bonds! total=26828 allocated=26740
 (src/REAXFF/reaxff_reset_tools.cpp:88)
Last command: run 1000
clear
Loaded 1 plugins from C:\Users\user\AppData\Local\LAMMPS 64-bit 2Aug2023\plugins
units real
dimension 3
boundary p p p
atom_style charge
read_data C:/Users/user/Documents/School/FFparamOpt/reax_ff_sim/ceo2_reaxff/geometry_file/fluorite_scaled/ceO2_fluorite_1.210.lmp
Reading data file ...
  orthogonal box = (0 0 0) to (6.6156145 6.6156145 6.6156145)
  reading atoms ...
  12 atoms
pair_style reaxff NULL checkqeq yes
pair_coeff * * C:/Users/user/Documents/School/FFparamOpt/reax_ff_sim/ffield.reax O Ce
neighbor 2 bin
neigh_modify every 10 delay 0 check yes
fix 1 all nve
fix 2 all qeq/reax 1 0.0 10.0 1e-6 reaxff
timestep 0.25
thermo 100
run 1000
ERROR on proc 0: Not enough space for bonds! total=26828 allocated=26740
 (src/REAXFF/reaxff_reset_tools.cpp:88)
Last command: run 1000
clear
Loaded 1 plugins from C:\Users\user\AppData\Local\LAMMPS 64-bit 2Aug2023\plugins
units real
dimension 3
boundary p p p
atom_style charge
read_data C:/Users/user/Documents/School/FFparamOpt/reax_ff_sim/ceo2_reaxff/geometry_file/fluorite_scaled/ceO2_fluorite_1.220.lmp
Reading data file ...
  orthogonal box = (0 0 0) to (6.670289 6.670289 6.670289)
  reading atoms ...
  12 atoms
pair_style reaxff NULL checkqeq yes
pair_coeff * * C:/Users/user/Documents/School/FFparamOpt/reax_ff_sim/ffield.reax O Ce
neighbor 2 bin
neigh_modify every 10 delay 0 check yes
fix 1 all nve
fix 2 all qeq/reax 1 0.0 10.0 1e-6 reaxff
timestep 0.25
thermo 100
run 1000
ERROR on proc 0: Not enough space for bonds! total=26828 allocated=26740
 (src/REAXFF/reaxff_reset_tools.cpp:88)
Last command: run 1000
clear
Loaded 1 plugins from C:\Users\user\AppData\Local\LAMMPS 64-bit 2Aug2023\plugins
units real
dimension 3
boundary p p p
atom_style charge
read_data C:/Users/user/Documents/School/FFparamOpt/reax_ff_sim/ceo2_reaxff/geometry_file/fluorite_scaled/ceO2_fluorite_1.230.lmp
Reading data file ...
  orthogonal box = (0 0 0) to (6.7249635 6.7249635 6.7249635)
  reading atoms ...
  12 atoms
pair_style reaxff NULL checkqeq yes
pair_coeff * * C:/Users/user/Documents/School/FFparamOpt/reax_ff_sim/ffield.reax O Ce
neighbor 2 bin
neigh_modify every 10 delay 0 check yes
fix 1 all nve
fix 2 all qeq/reax 1 0.0 10.0 1e-6 reaxff
timestep 0.25
thermo 100
run 1000
ERROR on proc 0: Not enough space for bonds! total=26828 allocated=26740
 (src/REAXFF/reaxff_reset_tools.cpp:88)
Last command: run 1000
clear
Loaded 1 plugins from C:\Users\user\AppData\Local\LAMMPS 64-bit 2Aug2023\plugins
units real
dimension 3
boundary p p p
atom_style charge
read_data C:/Users/user/Documents/School/FFparamOpt/reax_ff_sim/ceo2_reaxff/geometry_file/fluorite_scaled/ceO2_fluorite_1.240.lmp
Reading data file ...
  orthogonal box = (0 0 0) to (6.779638 6.779638 6.779638)
  reading atoms ...
  12 atoms
pair_style reaxff NULL checkqeq yes
pair_coeff * * C:/Users/user/Documents/School/FFparamOpt/reax_ff_sim/ffield.reax O Ce
neighbor 2 bin
neigh_modify every 10 delay 0 check yes
fix 1 all nve
fix 2 all qeq/reax 1 0.0 10.0 1e-6 reaxff
timestep 0.25
thermo 100
run 1000
ERROR on proc 0: Not enough space for bonds! total=26828 allocated=26740
 (src/REAXFF/reaxff_reset_tools.cpp:88)
Last command: run 1000
clear
Loaded 1 plugins from C:\Users\user\AppData\Local\LAMMPS 64-bit 2Aug2023\plugins
units real
dimension 3
boundary p p p
atom_style charge
read_data C:/Users/user/Documents/School/FFparamOpt/reax_ff_sim/ceo2_reaxff/geometry_file/fluorite_scaled/ceO2_fluorite_1.250.lmp
Reading data file ...
  orthogonal box = (0 0 0) to (6.8343125 6.8343125 6.8343125)
  reading atoms ...
  12 atoms
pair_style reaxff NULL checkqeq yes
pair_coeff * * C:/Users/user/Documents/School/FFparamOpt/reax_ff_sim/ffield.reax O Ce
neighbor 2 bin
neigh_modify every 10 delay 0 check yes
fix 1 all nve
fix 2 all qeq/reax 1 0.0 10.0 1e-6 reaxff
timestep 0.25
thermo 100
run 1000
