LAMMPS (2 Aug 2023 - Update 3)
Loaded 1 plugins from C:\Users\user\AppData\Local\LAMMPS 64-bit 2Aug2023\plugins
variable nx equal 2

region box block 0 2 0 2 0 2

dimension       3
boundary        p p p

units           real

atom_style      charge
read_data       C:\Users\user\Documents\School\FFparamOpt\reax_ff_sim\ceo2_reaxff\geometry_file\fluorite_scaled\ceO2_fluorite_1.000.lmp
Reading data file ...
  orthogonal box = (0 0 0) to (5.46745 5.46745 5.46745)
  reading atoms ...
  12 atoms

pair_style      reaxff lmp_control
pair_coeff      * * C:\Users\user\Documents\School\FFparamOpt\reax_ff_sim\ffield.reax O Ce

neighbor        2 bin
neigh_modify    every 10 delay 0 check no

fix             1 all nve
fix             2 all qeq/reax 1 0.0 10.0 1e-6 reaxff
fix             3 all temp/berendsen 500.0 500.0 100.0 #Every body seems to be using it

timestep        0.25
thermo_style custom step pe lx ly lz vol press pxx pyy pzz
thermo 100

#dump           1 all atom 30 dump.reax.feoh -1751.4783

run             2000

CITE-CITE-CITE-CITE-CITE-CITE-CITE-CITE-CITE-CITE-CITE-CITE-CITE

Your simulation uses code contributions which should be cited:

- pair reaxff command: doi:10.1016/j.parco.2011.08.005

@Article{Aktulga12,
 author = {H. M. Aktulga and J. C. Fogarty and S. A. Pandit and A. Y. Grama},
 title = {Parallel Reactive Molecular Dynamics: {N}umerical Methods and Algorithmic Techniques},
 journal = {Parallel Computing},
 year =    2012,
 volume =  38,
 number =  {4--5},
 pages =   {245--259}
}

- fix qeq/reaxff command: doi:10.1016/j.parco.2011.08.005

@Article{Aktulga12,
 author = {H. M. Aktulga and J. C. Fogarty and S. A. Pandit and A. Y. Grama},
 title = {Parallel Reactive Molecular Dynamics: {N}umerical Methods and Algorithmic Techniques},
 journal = {Parallel Computing},
 year =    2012,
 volume =  38,
 pages =   {245--259}
}

CITE-CITE-CITE-CITE-CITE-CITE-CITE-CITE-CITE-CITE-CITE-CITE-CITE

Step         PotEng           Lx             Ly             Lz           Volume         Press           Pxx            Pyy            Pzz
0  -903.36095      5.46745        5.46745        5.46745        163.43853      1626827.5      1626827.5      1626827.5      1626827.5
Averages over the last 11 of 21 rows, steps 1000 to 2000:
PotEng Lx Ly Lz Volume Press Pxx Pyy Pzz
-890.533 5.46745 5.46745 5.46745 163.439 1.66531e+06 1.6594e+06 1.65894e+06 1.6776e+06
Loop time of 29.6015 on 1 procs for 2000 steps with 12 atoms
