LAMMPS (15 Jun 2023)
Loaded 1 plugins from D:\LAMMPS 64-bit 15Jun2023\plugins
# Initialization
units           lj
dimension       3
atom_style      atomic
pair_style      lj/cut 2.5
boundary        p p p

# System definition
read_data minimized_coordinate.data
Reading data file ...
  orthogonal box = (-20 -20 -20) to (20 20 20)
  reading atoms ...
  1150 atoms
  reading velocities ...
  1150 velocities
region region_cylinder_in cylinder z 0 0 10 INF INF side in
region region_cylinder_out cylinder z 0 0 10 INF INF side out
group group_type_1 type 1
1000 atoms in group group_type_1
group group_type_2 type 2
150 atoms in group group_type_2
group group_region_in region region_cylinder_in
147 atoms in group group_region_in
group group_region_out region region_cylinder_out
1003 atoms in group group_region_out
group group_type_1_in intersect group_type_1 group_region_in
0 atoms in group group_type_1_in
group group_type_2_out intersect group_type_2 group_region_out
3 atoms in group group_type_2_out
delete_atoms group group_type_1_in
Deleted 0 atoms, new total = 1150
delete_atoms group group_type_2_out
Deleted 3 atoms, new total = 1147

# Visualization
thermo 1000
dump mydmp all atom 1000 dump.md.lammpstrj

variable number_type1_in equal count(group_type_1,region_cylinder_in)
variable number_type2_in equal count(group_type_2,region_cylinder_in)
fix myat1 all ave/time 10 200 2000 v_number_type1_in     file output-population1vstime.dat
fix myat2 all ave/time 10 200 2000 v_number_type2_in     file output-population2vstime.dat

compute coor12 group_type_1 coord/atom cutoff 2.0 group group_type_2
compute sumcoor12 all reduce ave c_coor12
fix myat3 all ave/time 10 200 2000     c_sumcoor12 file coordinationnumber12.dat

# Run
velocity all create 1.0 4928459 mom yes rot yes dist gaussian
fix mynve all nve
fix mylgv all langevin 1.0 1.0 0.1 1530917 zero yes
timestep 0.005
run 300000
Generated 1 of 1 mixed pair_coeff terms from geometric mixing rule
Step          Temp          E_pair         E_mol          TotEng         Press
0   1             -0.14543549     0              1.3532568      0.015779701
Averages over the last 151 of 301 rows, steps 150000 to 300000:
Temp E_pair E_mol TotEng Press
0.999737 -0.168352 0 1.32995 0.0174362
Loop time of 30.4665 on 1 procs for 300000 steps with 1147 atoms

write_data mixed.data
System init for write_data ...
Generated 1 of 1 mixed pair_coeff terms from geometric mixing rule
