LAMMPS (2 Aug 2023 - Update 3)
# 1) Initialization
units            lj
dimension 3
atom_style atomic
pair_style lj/cut 30
boundary f f f

# 2) System definition
region simulation_box block -5 5 -5 5 -5 5
create_box 1 simulation_box
Created orthogonal box = (-5 -5 -5) to (5 5 5)
create_atoms 1 random 19 875859 simulation_box
Created 19 atoms

# 3) Simulation settings
mass 1 1
pair_coeff 1 1 1.0 1.0

# 4) Visualization
thermo 100
thermo_style custom step temp pe ke etotal press
dump mydmp all atom 1 dump.lammpstrj

# 5) Run
minimize 1.0e-10 1.0e-12 10000 10000
Generated 0 of 0 mixed pair_coeff terms from geometric mixing rule
Step          Temp          PotEng         KinEng         TotEng         Press
0   0              935.62493      0              935.62493      71.647426
Averages over the last 9 of 17 rows, steps 800 to 1509:
Temp PotEng KinEng TotEng Press
0 -3.10808 0 -3.10808 -0.00059305
Loop time of 0.0395858 on 1 procs for 1509 steps with 19 atoms

Minimization stats:
  Stopping criterion = energy tolerance
  Energy initial, next-to-last, final =
  Force two-norm initial, final = 612881.48 0.0012431506
  Force max component initial, final = 400833.76 0.0003608683
  Final line search alpha, max atom move = 1 0.0003608683
  Iterations, force evaluations = 1509 3389
