##CIF_1.1

data_sm_global
#Used dictionaries
loop_
_audit_conform_dict_name
_audit_conform_dict_version
_audit_conform_dict_location
cif_core.dic 	2.4.2 	.
cif_pd.dic 		1.0.1 	.
cif_sm.dic 		0.1 	'redaktion.landolt-boernstein(at)springer.com'

#About this content and reference
_sm_credits_copyright
;PAULING FILE Multinaries Edition - 2012. SpringerMaterials Release 2014.
http://www.paulingfile.com
Unique LPF ID Number SD1923902
Project Coordinator: Shuichi Iwata
Section-Editors: Karin Cenzual (Crystal Structures), Hiroaki Okamoto (Phase 
Diagrams), Fritz Hulliger (Physical Properties)
(c) Springer & Material Phases Data System (MPDS), Switzerland & National 
Institute for Materials Science (NIMS), Japan 2014.
(Data generated pre-2002: (c) Springer & MPDS & NIMS; 
post-2001: (c) Springer & MPDS)
All Rights Reserved. Version 2014.06.
;

_audit_creation_method
;This data have been compiled from the crystallographic datasheet for 
"CeO2 Crystal Structure" 
taken from SpringerMaterials (sm_isp_sd_1923902).
;

_publ_section_references
;Cabus Llaurado M.C., Cesteros Y., Medina F., Salagre P., Sueiras J.E.: <i>Microporous high-surface area layered CeO<sub>2</sub></i>. Microporous and Mesoporous Materials <b>100</b> (2007) 167-172.
;

#Phase classification
_sm_phase_labels				'CeO2 cub'
_chemical_name_mineral			'cerianite-(Ce)'
_sm_chemical_compound_class		'oxide'
_sm_phase_prototype				'CaF2 '
_sm_pearson_symbol				'cF12'
_symmetry_Int_Tables_number		225
_sm_sample_details
;sample prepared from [NH<sub>4</sub>]<sub>2</sub>CO<sub>3</sub>, CeCl<sub>3</sub>[H<sub>2</sub>O]<sub>7</sub>, 
energy-dispersive X-ray analysis, 
powder (determination of cell parameters)
;
_sm_measurement_details
;automatic diffractometer (determination of cell parameters), 
X-rays, Cu K&#x03b1;; &#x03bb; = 0.1541 nm (determination of cell parameters)
;
_sm_interpretation_details
;cell parameters determined and type with fixed coordinates assigned
;

data_sm_isp_SD1923902-standardized_unitcell
#Cell Parameters
_cell_length_a					5.415
_cell_length_b					5.415
_cell_length_c					5.415
_cell_angle_alpha				90
_cell_angle_beta				90
_cell_angle_gamma				90
_sm_length_ratio_ab				1.000
_sm_length_ratio_bc				1.000
_sm_length_ratio_ca				1.000
_cell_volume 					158.8
_symmetry_space_group_name_H-M	'Fm-3m'
_symmetry_Int_Tables_number		225
_cell_formula_units_Z			4
_sm_cell_transformation
;No transformation from published to standardized cell parameters necessary.
;

#Atom Coordinates
loop_
_atom_site_label
_atom_site_type_symbol
_atom_site_Wyckoff_symbol
_sm_site_symmetry
_atom_site_fract_x
_atom_site_fract_y
_atom_site_fract_z
_atom_site_occupancy
_sm_coordination_number
_sm_atomic_environment_type
O 'O' .8c .-43m 0.25 0.25 0.25 1 10 'fourcapped trigonal prism, Ce<sub>4</sub>O<sub>6</sub>'
Ce 'Ce' .4a .m-3m 0 0 0 1 8 'square prism (cube), O<sub>8</sub>'

_sm_atom_site_transformation
;No transformation from published to standardized cell parameters necessary.
;

data_sm_isp_SD1923902-published_cell
#Cell Parameters
_cell_length_a					5.415
_cell_length_b					5.415
_cell_length_c					5.415
_cell_angle_alpha				90
_cell_angle_beta				90
_cell_angle_gamma				90
_sm_length_ratio_ab				1.000
_sm_length_ratio_bc				1.000
_sm_length_ratio_ca				1.000
_cell_volume 					158.78
_symmetry_space_group_name_H-M	'Fm-3m'
_symmetry_Int_Tables_number		225
_cell_formula_units_Z			4

#Atom Coordinates
loop_
_atom_site_label
_atom_site_type_symbol
_atom_site_Wyckoff_symbol
_sm_site_symmetry
_atom_site_fract_x
_atom_site_fract_y
_atom_site_fract_z
_atom_site_occupancy
_sm_coordination_number
_sm_atomic_environment_type
Ce 'Ce' .4a .m-3m 0 0 0 1 ? '?'
O 'O' .8c .-43m 0.25 0.25 0.25 1 ? '?'

data_sm_isp_SD1923902-niggli_reduced_cell
#Cell Parameters
_cell_length_a					3.829
_cell_length_b					3.829
_cell_length_c					3.829
_cell_angle_alpha				60
_cell_angle_beta				60
_cell_angle_gamma				60
_sm_length_ratio_ab				1.000
_sm_length_ratio_bc				1.000
_sm_length_ratio_ca				1.000
_cell_volume 					39.7
_symmetry_space_group_name_H-M	''
_symmetry_Int_Tables_number		?
_cell_formula_units_Z			4

#Atom Coordinates
loop_
_atom_site_label
_atom_site_type_symbol
_atom_site_Wyckoff_symbol
_sm_site_symmetry
_atom_site_fract_x
_atom_site_fract_y
_atom_site_fract_z
_atom_site_occupancy
_sm_coordination_number
_sm_atomic_environment_type
? ? ? ? ? ? ? ? ? ?

