LAMMPS (2 Aug 2023 - Update 3)
# 1) Initialization
units lj
dimension 3
atom_style atomic
pair_style lj/cut 2.5
boundary p p p

# 2) System definition
region simulation_box block -20 20 -20 20 -20 20
create_box 2 simulation_box
Created orthogonal box = (-20 -20 -20) to (20 20 20)
create_atoms 1 random 1500 341341 simulation_box
Created 1500 atoms
create_atoms 2 random 100 127569 simulation_box
Created 100 atoms

# 3) Simulation settings
#mass * 1
mass 1 1
mass 2 1
pair_coeff 1 1 1.0 1.0
pair_coeff 2 2 0.5 3.0

# 4) Visualisation
thermo 10
thermo_style custom step temp pe ke etotal press

# 5) Run
minimize 1.0e-4 1.0e-6 1000 10000
Generated 1 of 1 mixed pair_coeff terms from geometric mixing rule
Step          Temp          PotEng         KinEng         TotEng         Press
0   0              78840982       0              78840982       7884122
Loop time of 0.0946229 on 1 procs for 388 steps with 1600 atoms

Minimization stats:
  Stopping criterion = energy tolerance
  Energy initial, next-to-last, final =
  Force two-norm initial, final = 1.6033542e+13 8.4209032
  Force max component initial, final = 1.0518609e+13 3.0313935
  Final line search alpha, max atom move = 0.00078464023 0.0023785533
  Iterations, force evaluations = 388 786

# PART B - MOLECULAR DYNAMICS
# 4) Visualization
thermo 50
dump mydmp all atom 100 dump.lammpstrj

# 5) Run
fix mynve all nve
fix mylgv all langevin 1.0 1.0 0.1 1530917
timestep 0.005
run 10000
Generated 1 of 1 mixed pair_coeff terms from geometric mixing rule
Step          Temp          PotEng         KinEng         TotEng         Press
388   0             -0.95358725     0             -0.95358725    -0.00031255895
Averages over the last 101 of 202 rows, steps 5400 to 10388:
Temp PotEng KinEng TotEng Press
1.00039 -0.226416 1.49965 1.27323 0.0231708
Loop time of 0.886975 on 1 procs for 10000 steps with 1600 atoms
